<?xml version="1.0" encoding="UTF-8"?>

<!-- generated on 05/21/19 05:00:43 by Eclipse SUMO netedit Version 1.1.0
<configuration xmlns:xsi="http://www.w3.org/2001/XMLSchema-instance" xsi:noNamespaceSchemaLocation="http://sumo.dlr.de/xsd/netconvertConfiguration.xsd">

    <input>
        <sumo-net-file value="C:\Users\BugraTulay\Desktop\dublin_sumo\dublin1.net.xml"/>
    </input>

    <output>
        <output-file value="C:\Users\BugraTulay\Desktop\dublin_sumo\dublin1.net.xml"/>
    </output>

    <processing>
        <geometry.max-grade.fix value="false"/>
        <offset.disable-normalization value="true"/>
        <lefthand value="false"/>
    </processing>

    <junctions>
        <no-turnarounds value="true"/>
        <junctions.corner-detail value="5"/>
        <junctions.limit-turn-speed value="5.5"/>
        <rectangular-lane-cut value="false"/>
    </junctions>

    <pedestrian>
        <walkingareas value="false"/>
    </pedestrian>

    <visualisation>
        <registry-viewport value="true"/>
    </visualisation>

</configuration>
-->

<net version="1.1" junctionCornerDetail="5" limitTurnSpeed="5.50" xmlns:xsi="http://www.w3.org/2001/XMLSchema-instance" xsi:noNamespaceSchemaLocation="http://sumo.dlr.de/xsd/net_file.xsd">

    <location netOffset="-314775.54,-4441274.39" convBoundary="0.00,0.00,2728.15,757.17" origBoundary="-83.173230,40.101651,-83.141177,40.108453" projParameter="+proj=utm +zone=17 +ellps=WGS84 +datum=WGS84 +units=m +no_defs"/>

    <type id="highway.bridleway" priority="1" numLanes="1" speed="2.78" allow="pedestrian" oneway="1" width="2.00"/>
    <type id="highway.bus_guideway" priority="1" numLanes="1" speed="13.89" allow="bus" oneway="1"/>
    <type id="highway.cycleway" priority="1" numLanes="1" speed="8.33" allow="bicycle" oneway="0" width="1.00"/>
    <type id="highway.footway" priority="1" numLanes="1" speed="2.78" allow="pedestrian" oneway="1" width="2.00"/>
    <type id="highway.ford" priority="1" numLanes="1" speed="2.78" allow="army" oneway="0"/>
    <type id="highway.living_street" priority="3" numLanes="1" speed="2.78" disallow="tram rail_urban rail rail_electric ship" oneway="0"/>
    <type id="highway.motorway" priority="13" numLanes="2" speed="27.78" allow="private emergency authority army vip passenger hov taxi bus coach delivery truck trailer motorcycle evehicle custom1 custom2" oneway="1"/>
    <type id="highway.motorway_link" priority="12" numLanes="1" speed="16.67" allow="private emergency authority army vip passenger hov taxi bus coach delivery truck trailer motorcycle evehicle custom1 custom2" oneway="1"/>
    <type id="highway.path" priority="1" numLanes="1" speed="2.78" allow="bicycle pedestrian" oneway="1" width="2.00"/>
    <type id="highway.pedestrian" priority="1" numLanes="1" speed="2.78" allow="pedestrian" oneway="1" width="2.00"/>
    <type id="highway.primary" priority="9" numLanes="2" speed="13.89" disallow="tram rail_urban rail rail_electric ship" oneway="0"/>
    <type id="highway.primary_link" priority="8" numLanes="1" speed="13.89" disallow="tram rail_urban rail rail_electric ship" oneway="0"/>
    <type id="highway.raceway" priority="14" numLanes="2" speed="83.33" allow="vip" oneway="0"/>
    <type id="highway.residential" priority="4" numLanes="1" speed="13.89" disallow="tram rail_urban rail rail_electric ship" oneway="0"/>
    <type id="highway.secondary" priority="7" numLanes="2" speed="13.89" disallow="tram rail_urban rail rail_electric ship" oneway="0"/>
    <type id="highway.secondary_link" priority="6" numLanes="1" speed="13.89" disallow="tram rail_urban rail rail_electric ship" oneway="0"/>
    <type id="highway.service" priority="2" numLanes="1" speed="5.56" allow="delivery bicycle pedestrian" oneway="0"/>
    <type id="highway.stairs" priority="1" numLanes="1" speed="1.39" allow="pedestrian" oneway="1" width="2.00"/>
    <type id="highway.step" priority="1" numLanes="1" speed="1.39" allow="pedestrian" oneway="1" width="2.00"/>
    <type id="highway.steps" priority="1" numLanes="1" speed="1.39" allow="pedestrian" oneway="1" width="2.00"/>
    <type id="highway.tertiary" priority="6" numLanes="1" speed="13.89" disallow="tram rail_urban rail rail_electric ship" oneway="0"/>
    <type id="highway.tertiary_link" priority="5" numLanes="1" speed="13.89" disallow="tram rail_urban rail rail_electric ship" oneway="0"/>
    <type id="highway.track" priority="1" numLanes="1" speed="5.56" disallow="tram rail_urban rail rail_electric ship" oneway="0"/>
    <type id="highway.trunk" priority="11" numLanes="2" speed="13.89" disallow="tram rail_urban rail rail_electric bicycle pedestrian ship" oneway="0"/>
    <type id="highway.trunk_link" priority="10" numLanes="1" speed="13.89" disallow="tram rail_urban rail rail_electric bicycle pedestrian ship" oneway="0"/>
    <type id="highway.unclassified" priority="5" numLanes="1" speed="13.89" disallow="tram rail_urban rail rail_electric ship" oneway="0"/>
    <type id="highway.unsurfaced" priority="1" numLanes="1" speed="8.33" disallow="tram rail_urban rail rail_electric ship" oneway="0"/>
    <type id="railway.light_rail" priority="15" numLanes="1" speed="27.78" allow="rail_urban" oneway="1"/>
    <type id="railway.preserved" priority="15" numLanes="1" speed="27.78" allow="rail" oneway="1"/>
    <type id="railway.rail" priority="15" numLanes="1" speed="83.33" allow="rail rail_electric" oneway="1"/>
    <type id="railway.subway" priority="15" numLanes="1" speed="27.78" allow="rail_urban" oneway="1"/>
    <type id="railway.tram" priority="15" numLanes="1" speed="13.89" allow="tram" oneway="1"/>

    <edge id=":2331041501_0" function="internal">
        <lane id=":2331041501_0_0" index="0" disallow="tram rail_urban rail rail_electric ship" speed="11.84" length="7.08" shape="1127.81,591.89 1125.79,592.50 1124.35,592.92 1123.12,593.64 1121.70,595.11"/>
    </edge>
    <edge id=":2331041501_1" function="internal">
        <lane id=":2331041501_1_0" index="0" disallow="tram rail_urban rail rail_electric ship" speed="13.89" length="7.12" shape="1125.00,588.86 1124.20,590.82 1123.66,592.17 1122.96,593.43 1121.70,595.11"/>
    </edge>
    <edge id=":exit10_0" function="internal">
        <lane id=":exit10_0_0" index="0" disallow="tram rail_urban rail rail_electric ship" speed="3.65" length="4.67" shape="2632.89,63.92 2634.07,64.76 2634.44,65.57 2634.01,66.36 2632.79,67.12"/>
    </edge>
    <edge id=":exit3_0" function="internal">
        <lane id=":exit3_0_0" index="0" disallow="tram rail_urban rail rail_electric ship" speed="13.89" length="4.81" shape="1182.19,583.40 1180.76,583.39 1179.78,583.39 1178.81,583.49 1177.41,583.75"/>
    </edge>
    <edge id=":exit3_1" function="internal">
        <lane id=":exit3_1_0" index="0" disallow="tram rail_urban rail rail_electric ship" speed="3.65" length="2.34" shape="1182.19,583.40 1180.99,582.60 1180.58,581.80"/>
    </edge>
    <edge id=":exit3_4" function="internal">
        <lane id=":exit3_4_0" index="0" disallow="tram rail_urban rail rail_electric ship" speed="3.65" length="2.34" shape="1180.58,581.80 1180.98,581.00 1182.18,580.20"/>
    </edge>
    <edge id=":exit3_2" function="internal">
        <lane id=":exit3_2_0" index="0" disallow="tram rail_urban rail rail_electric ship" speed="13.89" length="3.64" shape="1178.59,579.72 1179.63,579.99 1180.36,580.13 1181.10,580.19 1182.18,580.20"/>
    </edge>
    <edge id=":exit3_3" function="internal">
        <lane id=":exit3_3_0" index="0" disallow="tram rail_urban rail rail_electric ship" speed="5.17" length="9.86" shape="1178.59,579.72 1181.57,580.75 1182.37,581.76 1180.98,582.76 1177.41,583.75"/>
    </edge>
    <edge id=":exit4_0" function="internal">
        <lane id=":exit4_0_0" index="0" disallow="tram rail_urban rail rail_electric ship" speed="13.89" length="3.22" shape="982.57,583.71 981.63,583.56 980.98,583.51 980.32,583.51 979.37,583.54"/>
    </edge>
    <edge id=":exit4_1" function="internal">
        <lane id=":exit4_1_0" index="0" speed="13.89" length="2.79" shape="979.26,580.34 980.09,580.32 980.66,580.31 981.23,580.26 982.04,580.15"/>
    </edge>
    <edge id=":exit4_2" function="internal">
        <lane id=":exit4_2_0" index="0" disallow="tram rail_urban rail rail_electric ship" speed="3.65" length="2.34" shape="979.26,580.34 980.49,581.11 980.91,581.89"/>
    </edge>
    <edge id=":exit4_3" function="internal">
        <lane id=":exit4_3_0" index="0" disallow="tram rail_urban rail rail_electric ship" speed="3.65" length="2.34" shape="980.91,581.89 980.54,582.70 979.37,583.54"/>
    </edge>
    <edge id=":exit5_0" function="internal">
        <lane id=":exit5_0_0" index="0" disallow="tram rail_urban rail rail_electric ship" speed="3.65" length="4.67" shape="266.31,624.72 265.01,624.08 264.51,623.34 264.81,622.49 265.89,621.54"/>
    </edge>
    <edge id=":exit6_0" function="internal">
        <lane id=":exit6_0_0" index="0" disallow="tram rail_urban rail rail_electric ship" speed="3.65" length="4.67" shape="2726.73,374.51 2727.98,373.81 2728.88,373.82 2729.41,374.54 2729.57,375.97"/>
    </edge>
    <edge id=":exit7_0" function="internal">
        <lane id=":exit7_0_0" index="0" disallow="tram rail_urban rail rail_electric ship" speed="3.65" length="4.67" shape="1.60,605.02 0.74,606.18 -0.08,606.54 -0.86,606.10 -1.60,604.86"/>
    </edge>
    <edge id=":intersection1_0" function="internal">
        <lane id=":intersection1_0_0" index="0" disallow="tram rail_urban rail rail_electric ship" speed="13.89" length="9.03" shape="1156.42,373.07 1147.42,372.46"/>
    </edge>
    <edge id=":intersection1_1" function="internal">
        <lane id=":intersection1_1_0" index="0" disallow="tram rail_urban rail rail_electric ship" speed="3.65" length="2.34" shape="1156.42,373.07 1155.28,372.19 1154.94,371.37"/>
    </edge>
    <edge id=":intersection1_6" function="internal">
        <lane id=":intersection1_6_0" index="0" disallow="tram rail_urban rail rail_electric ship" speed="3.65" length="2.34" shape="1154.94,371.37 1155.39,370.60 1156.64,369.88"/>
    </edge>
    <edge id=":intersection1_2" function="internal">
        <lane id=":intersection1_2_0" index="0" disallow="tram rail_urban rail rail_electric ship" speed="13.09" length="9.03" shape="1148.96,365.60 1151.05,367.32 1152.49,368.60 1154.09,369.45 1156.64,369.88"/>
    </edge>
    <edge id=":intersection1_3" function="internal">
        <lane id=":intersection1_3_0" index="0" disallow="tram rail_urban rail rail_electric ship" speed="6.20" length="14.38" shape="1148.96,365.60 1152.84,368.91 1153.87,371.16 1152.06,372.34 1147.42,372.46"/>
    </edge>
    <edge id=":intersection1_4" function="internal">
        <lane id=":intersection1_4_0" index="0" disallow="tram rail_urban rail rail_electric ship" speed="13.89" length="9.03" shape="1147.63,369.27 1156.64,369.88"/>
    </edge>
    <edge id=":intersection1_5" function="internal">
        <lane id=":intersection1_5_0" index="0" disallow="tram rail_urban rail rail_electric ship" speed="3.65" length="2.34" shape="1147.63,369.27 1148.78,370.15 1149.12,370.98"/>
    </edge>
    <edge id=":intersection1_7" function="internal">
        <lane id=":intersection1_7_0" index="0" disallow="tram rail_urban rail rail_electric ship" speed="3.65" length="2.34" shape="1149.12,370.98 1148.67,371.75 1147.42,372.46"/>
    </edge>
    <edge id=":intersection2_0" function="internal">
        <lane id=":intersection2_0_0" index="0" disallow="tram rail_urban rail rail_electric ship" speed="6.53" length="9.06" shape="1130.68,371.33 1128.20,371.50 1126.37,372.43 1125.19,374.10 1124.66,376.51"/>
    </edge>
    <edge id=":intersection2_1" function="internal">
        <lane id=":intersection2_1_0" index="0" disallow="tram rail_urban rail rail_electric ship" speed="13.89" length="27.01" shape="1130.68,371.33 1103.75,369.23"/>
    </edge>
    <edge id=":intersection2_2" function="internal">
        <lane id=":intersection2_2_0" index="0" disallow="tram rail_urban rail rail_electric ship" speed="9.99" length="11.90" shape="1130.68,371.33 1122.81,370.21 1119.11,368.82"/>
    </edge>
    <edge id=":intersection2_3" function="internal">
        <lane id=":intersection2_3_0" index="0" disallow="tram rail_urban rail rail_electric ship" speed="3.65" length="2.34" shape="1130.68,371.33 1129.54,370.44 1129.19,369.62"/>
    </edge>
    <edge id=":intersection2_18" function="internal">
        <lane id=":intersection2_18_0" index="0" disallow="tram rail_urban rail rail_electric ship" speed="9.99" length="10.57" shape="1119.11,368.82 1117.26,368.12 1114.03,365.06 1113.12,361.02"/>
    </edge>
    <edge id=":intersection2_19" function="internal">
        <lane id=":intersection2_19_0" index="0" disallow="tram rail_urban rail rail_electric ship" speed="3.65" length="2.34" shape="1129.19,369.62 1129.65,368.85 1130.90,368.13"/>
    </edge>
    <edge id=":intersection2_4" function="internal">
        <lane id=":intersection2_4_0" index="0" disallow="tram rail_urban rail rail_electric ship" speed="6.61" length="9.38" shape="1125.75,361.72 1125.91,364.38 1126.81,366.34 1128.48,367.59 1130.90,368.13"/>
    </edge>
    <edge id=":intersection2_5" function="internal">
        <lane id=":intersection2_5_0" index="0" disallow="tram rail_urban rail rail_electric ship" speed="13.89" length="14.80" shape="1125.75,361.72 1124.66,376.51"/>
        <lane id=":intersection2_5_1" index="1" disallow="tram rail_urban rail rail_electric ship" speed="13.89" length="14.80" shape="1122.56,361.55 1121.46,376.28"/>
    </edge>
    <edge id=":intersection2_7" function="internal">
        <lane id=":intersection2_7_0" index="0" disallow="tram rail_urban rail rail_electric ship" speed="9.93" length="7.74" shape="1122.56,361.55 1121.13,365.43 1118.20,367.52"/>
    </edge>
    <edge id=":intersection2_8" function="internal">
        <lane id=":intersection2_8_0" index="0" disallow="tram rail_urban rail rail_electric ship" speed="5.56" length="10.92" shape="1122.56,361.55 1120.00,364.95 1117.58,366.00 1115.28,364.69 1114.58,363.51"/>
    </edge>
    <edge id=":intersection2_20" function="internal">
        <lane id=":intersection2_20_0" index="0" disallow="tram rail_urban rail rail_electric ship" speed="9.93" length="14.74" shape="1118.20,367.52 1117.52,368.00 1111.72,369.27 1103.75,369.23"/>
    </edge>
    <edge id=":intersection2_21" function="internal">
        <lane id=":intersection2_21_0" index="0" disallow="tram rail_urban rail rail_electric ship" speed="5.56" length="2.88" shape="1114.58,363.51 1113.12,361.02"/>
    </edge>
    <edge id=":intersection2_9" function="internal">
        <lane id=":intersection2_9_0" index="0" disallow="tram rail_urban rail rail_electric ship" speed="6.46" length="9.03" shape="1104.00,366.04 1106.47,365.87 1108.29,364.95 1109.44,363.28 1109.93,360.84"/>
    </edge>
    <edge id=":intersection2_10" function="internal">
        <lane id=":intersection2_10_0" index="0" disallow="tram rail_urban rail rail_electric ship" speed="13.89" length="26.99" shape="1104.00,366.04 1130.90,368.13"/>
    </edge>
    <edge id=":intersection2_11" function="internal">
        <lane id=":intersection2_11_0" index="0" disallow="tram rail_urban rail rail_electric ship" speed="9.92" length="11.74" shape="1104.00,366.04 1111.88,367.20 1115.40,368.53"/>
    </edge>
    <edge id=":intersection2_12" function="internal">
        <lane id=":intersection2_12_0" index="0" disallow="tram rail_urban rail rail_electric ship" speed="3.65" length="2.34" shape="1104.00,366.04 1105.13,366.93 1105.47,367.76"/>
    </edge>
    <edge id=":intersection2_22" function="internal">
        <lane id=":intersection2_22_0" index="0" disallow="tram rail_urban rail rail_electric ship" speed="9.92" length="10.61" shape="1115.40,368.53 1117.42,369.29 1120.62,372.32 1121.46,376.28"/>
    </edge>
    <edge id=":intersection2_23" function="internal">
        <lane id=":intersection2_23_0" index="0" disallow="tram rail_urban rail rail_electric ship" speed="3.65" length="2.34" shape="1105.47,367.76 1105.01,368.52 1103.75,369.23"/>
    </edge>
    <edge id=":intersection2_13" function="internal">
        <lane id=":intersection2_13_0" index="0" disallow="tram rail_urban rail rail_electric ship" speed="6.63" length="9.25" shape="1109.12,375.36 1108.90,372.84 1107.94,370.98 1106.22,369.78 1103.75,369.23"/>
    </edge>
    <edge id=":intersection2_14" function="internal">
        <lane id=":intersection2_14_0" index="0" disallow="tram rail_urban rail rail_electric ship" speed="13.89" length="14.57" shape="1109.12,375.36 1109.93,360.84"/>
        <lane id=":intersection2_14_1" index="1" disallow="tram rail_urban rail rail_electric ship" speed="13.89" length="14.57" shape="1112.31,375.60 1113.12,361.02"/>
    </edge>
    <edge id=":intersection2_16" function="internal">
        <lane id=":intersection2_16_0" index="0" disallow="tram rail_urban rail rail_electric ship" speed="9.82" length="7.45" shape="1112.31,375.60 1113.65,371.86 1116.50,369.87"/>
    </edge>
    <edge id=":intersection2_17" function="internal">
        <lane id=":intersection2_17_0" index="0" disallow="tram rail_urban rail rail_electric ship" speed="5.49" length="10.52" shape="1112.31,375.60 1114.85,372.34 1117.23,371.36 1119.43,372.68 1120.05,373.77"/>
    </edge>
    <edge id=":intersection2_24" function="internal">
        <lane id=":intersection2_24_0" index="0" disallow="tram rail_urban rail rail_electric ship" speed="9.82" length="14.69" shape="1116.50,369.87 1117.20,369.37 1122.95,368.13 1130.90,368.13"/>
    </edge>
    <edge id=":intersection2_25" function="internal">
        <lane id=":intersection2_25_0" index="0" disallow="tram rail_urban rail rail_electric ship" speed="5.49" length="2.88" shape="1120.05,373.77 1121.46,376.28"/>
    </edge>
    <edge id=":intersection3_0" function="internal">
        <lane id=":intersection3_0_0" index="0" disallow="tram rail_urban rail rail_electric ship" speed="11.86" length="8.58" shape="1127.64,336.24 1127.72,338.69 1128.34,340.29 1129.42,341.79 1130.85,343.92"/>
    </edge>
    <edge id=":intersection3_1" function="internal">
        <lane id=":intersection3_1_0" index="0" disallow="tram rail_urban rail rail_electric ship" speed="13.89" length="8.60" shape="1127.64,336.24 1127.01,344.82"/>
        <lane id=":intersection3_1_1" index="1" disallow="tram rail_urban rail rail_electric ship" speed="13.89" length="8.60" shape="1124.45,336.01 1123.82,344.58"/>
    </edge>
    <edge id=":intersection4_0" function="internal">
        <lane id=":intersection4_0_0" index="0" disallow="tram rail_urban rail rail_electric ship" speed="13.89" length="0.42" shape="1066.82,366.43 1066.70,366.42 1066.61,366.42 1066.53,366.43 1066.41,366.45"/>
    </edge>
    <edge id=":intersection4_1" function="internal">
        <lane id=":intersection4_1_0" index="0" disallow="tram rail_urban rail rail_electric ship" speed="3.65" length="2.34" shape="1066.82,366.43 1065.69,365.54 1065.35,364.71"/>
    </edge>
    <edge id=":intersection4_3" function="internal">
        <lane id=":intersection4_3_0" index="0" disallow="tram rail_urban rail rail_electric ship" speed="3.65" length="2.34" shape="1065.35,364.71 1065.81,363.94 1067.06,363.24"/>
    </edge>
    <edge id=":intersection4_2" function="internal">
        <lane id=":intersection4_2_0" index="0" disallow="tram rail_urban rail rail_electric ship" speed="13.89" length="1.28" shape="1065.79,363.13 1067.06,363.24"/>
    </edge>
    <edge id=":intersection5_0" function="internal">
        <lane id=":intersection5_0_0" index="0" disallow="tram rail_urban rail rail_electric ship" speed="13.89" length="0.24" shape="989.17,381.22 989.10,381.24 989.06,381.26 989.01,381.29 988.94,381.31"/>
    </edge>
    <edge id=":intersection5_1" function="internal">
        <lane id=":intersection5_1_0" index="0" disallow="tram rail_urban rail rail_electric ship" speed="13.89" length="0.10" shape="987.96,378.27 987.99,378.33"/>
    </edge>
    <edge id=":intersection5_2" function="internal">
        <lane id=":intersection5_2_0" index="0" disallow="tram rail_urban rail rail_electric ship" speed="3.65" length="2.34" shape="987.96,378.27 989.35,378.66 989.97,379.30"/>
    </edge>
    <edge id=":intersection5_3" function="internal">
        <lane id=":intersection5_3_0" index="0" disallow="tram rail_urban rail rail_electric ship" speed="3.65" length="2.34" shape="989.97,379.30 989.84,380.18 988.94,381.31"/>
    </edge>
    <edge id=":round1_0" function="internal">
        <lane id=":round1_0_0" index="0" disallow="tram rail_urban rail rail_electric ship" speed="9.65" length="8.74" shape="1118.06,598.98 1117.14,600.00 1116.34,601.68 1115.65,604.03 1115.07,607.04"/>
    </edge>
    <edge id=":round1_1" function="internal">
        <lane id=":round1_1_0" index="0" disallow="tram rail_urban rail rail_electric ship" speed="10.28" length="9.98" shape="1118.06,598.98 1115.58,600.93 1113.73,602.84 1112.50,604.71 1111.91,606.55"/>
    </edge>
    <edge id=":round1_2" function="internal">
        <lane id=":round1_2_0" index="0" disallow="tram rail_urban rail rail_electric ship" speed="13.89" length="10.92" shape="1118.06,598.98 1115.53,600.89 1113.59,602.29 1111.49,603.22 1108.45,603.66"/>
    </edge>
    <edge id=":round2_0" function="internal">
        <lane id=":round2_0_0" index="0" speed="8.57" length="10.68" shape="1091.85,607.88 1090.65,604.86 1089.12,602.59 1087.27,601.08 1085.09,600.32"/>
    </edge>
    <edge id=":round2_1" function="internal">
        <lane id=":round2_1_0" index="0" speed="13.89" length="13.00" shape="1094.91,606.94 1093.25,603.24 1091.45,600.72 1090.00,598.40 1089.41,595.35"/>
    </edge>
    <edge id=":round2_2" function="internal">
        <lane id=":round2_2_0" index="0" speed="13.89" length="14.13" shape="1098.92,603.22 1085.09,600.32"/>
    </edge>
    <edge id=":round2_3" function="internal">
        <lane id=":round2_3_0" index="0" speed="8.49" length="13.33" shape="1098.92,603.22 1094.75,601.90 1091.78,600.15 1090.00,597.97 1089.41,595.35"/>
    </edge>
    <edge id=":round4_0" function="internal">
        <lane id=":round4_0_0" index="0" disallow="tram rail_urban rail rail_electric ship" speed="13.89" length="13.38" shape="1089.44,568.82 1090.11,565.78 1091.76,563.52 1093.92,561.08 1096.09,557.47"/>
    </edge>
    <edge id=":round4_1" function="internal">
        <lane id=":round4_1_0" index="0" disallow="tram rail_urban rail rail_electric ship" speed="8.48" length="13.73" shape="1089.44,568.82 1090.08,566.21 1091.98,564.06 1095.15,562.39 1099.58,561.18"/>
    </edge>
    <edge id=":round4_2" function="internal">
        <lane id=":round4_2_0" index="0" disallow="tram rail_urban rail rail_electric ship" speed="9.50" length="11.48" shape="1085.45,564.08 1087.62,563.32 1089.63,561.75 1091.47,559.37 1093.16,556.17"/>
    </edge>
    <edge id=":round4_3" function="internal">
        <lane id=":round4_3_0" index="0" disallow="tram rail_urban rail rail_electric ship" speed="13.89" length="14.42" shape="1085.45,564.08 1099.58,561.18"/>
    </edge>
    <edge id=":round5_0" function="internal">
        <lane id=":round5_0_0" index="0" disallow="tram rail_urban rail rail_electric ship" speed="13.89" length="11.15" shape="1115.37,557.09 1116.26,560.37 1116.81,562.80 1117.76,564.85 1119.85,567.00"/>
    </edge>
    <edge id=":round5_1" function="internal">
        <lane id=":round5_1_0" index="0" disallow="tram rail_urban rail rail_electric ship" speed="13.89" length="12.36" shape="1109.24,561.12 1112.44,561.84 1114.95,563.09 1117.25,564.83 1119.85,567.00"/>
    </edge>
    <edge id=":round6_0" function="internal">
        <lane id=":round6_0_0" index="0" disallow="tram rail_urban rail rail_electric ship" speed="9.88" length="6.72" shape="1121.87,569.58 1123.17,571.00 1124.35,571.66 1125.74,572.00 1127.70,572.44"/>
    </edge>
    <edge id=":round6_1" function="internal">
        <lane id=":round6_1_0" index="0" disallow="tram rail_urban rail rail_electric ship" speed="13.89" length="6.79" shape="1121.87,569.58 1123.03,571.22 1123.69,572.43 1124.20,573.72 1124.94,575.60"/>
    </edge>

    <edge id="connection1" from="intersection3" to="intersection1" priority="5" type="highway.tertiary_link" spreadType="center" shape="1126.07,335.83 1136.81,353.98 1141.55,360.22 1150.05,366.39 1157.14,371.52">
        <lane id="connection1_0" index="0" disallow="tram rail_urban rail rail_electric ship" speed="13.89" length="28.69" shape="1130.85,343.92 1136.81,353.98 1141.55,360.22 1148.96,365.60"/>
    </edge>
    <edge id="lane1" from="round1" to="exit1" priority="6" type="highway.tertiary" spreadType="center" shape="1114.29,601.63 1112.46,613.42 1110.18,626.59 1106.66,691.20 1110.78,739.96 1113.21,753.63">
        <lane id="lane1_0" index="0" disallow="tram rail_urban rail rail_electric ship" speed="13.89" length="147.60" shape="1115.07,607.04 1114.04,613.68 1111.77,626.77 1108.26,691.18 1112.37,739.75 1114.79,753.35"/>
        <lane id="lane1_1" index="1" disallow="tram rail_urban rail rail_electric ship" speed="13.89" length="147.60" shape="1111.91,606.55 1110.88,613.16 1108.59,626.41 1105.06,691.22 1109.19,740.17 1111.63,753.91"/>
    </edge>
    <edge id="lane10" from="exit3" to="2331041501" priority="6" type="highway.tertiary" spreadType="center" shape="1186.74,581.79 1166.23,586.09 1140.01,587.62 1122.93,593.60">
        <lane id="lane10_0" index="0" disallow="tram rail_urban rail rail_electric ship" speed="13.89" length="50.61" shape="1177.41,583.75 1166.23,586.09 1140.01,587.62 1127.81,591.89"/>
    </edge>
    <edge id="lane11" from="exit3" to="exit6" priority="6" type="highway.tertiary" shape="1186.74,581.79 1196.96,581.77 1516.45,581.90 1699.23,582.58 1735.99,582.58 1754.77,583.21 1774.15,583.88 1780.85,583.99 1807.34,584.46 1851.45,585.23 1954.44,587.18 1969.88,587.47 2008.99,589.41 2122.89,593.49 2166.48,595.05 2202.63,596.93 2213.10,597.48 2271.95,601.05 2291.89,602.63 2315.14,604.46 2350.56,607.26 2392.25,610.14 2399.51,609.98 2418.74,609.53 2443.98,601.23 2464.88,590.95 2475.72,584.47 2506.97,564.39 2535.62,546.71 2566.86,526.30 2667.36,461.61 2693.66,434.96 2703.89,421.16 2712.41,406.02 2728.15,375.24">
        <lane id="lane11_0" index="0" disallow="tram rail_urban rail rail_electric ship" speed="13.89" length="1632.23" shape="1182.18,580.20 1196.96,580.17 1516.45,580.30 1699.23,580.98 1736.02,580.98 1754.82,581.61 1774.19,582.28 1780.88,582.39 1807.37,582.86 1851.48,583.63 1954.47,585.58 1969.93,585.87 2009.06,587.81 2122.95,591.89 2166.55,593.45 2202.71,595.33 2213.19,595.88 2272.06,599.45 2292.02,601.03 2315.27,602.86 2350.68,605.66 2392.29,608.54 2399.47,608.38 2418.47,607.94 2443.37,599.74 2464.12,589.54 2474.88,583.11 2506.12,563.04 2534.76,545.36 2565.99,524.96 2666.35,460.36 2692.44,433.92 2702.54,420.29 2711.00,405.26 2726.73,374.51"/>
    </edge>
    <edge id="lane12" from="exit6" to="exit3" priority="6" type="highway.tertiary" shape="2728.15,375.24 2712.41,406.02 2703.89,421.16 2693.66,434.96 2667.36,461.61 2566.86,526.30 2535.62,546.71 2506.97,564.39 2475.72,584.47 2464.88,590.95 2443.98,601.23 2418.74,609.53 2399.51,609.98 2392.25,610.14 2350.56,607.26 2315.14,604.46 2291.89,602.63 2271.95,601.05 2213.10,597.48 2202.63,596.93 2166.48,595.05 2122.89,593.49 2008.99,589.41 1969.88,587.47 1954.44,587.18 1851.45,585.23 1807.34,584.46 1780.85,583.99 1774.15,583.88 1754.77,583.21 1735.99,582.58 1699.23,582.58 1516.45,581.90 1196.96,581.77 1186.74,581.79">
        <lane id="lane12_0" index="0" disallow="tram rail_urban rail rail_electric ship" speed="13.89" length="1635.75" shape="2729.57,375.97 2713.82,406.78 2705.24,422.03 2694.88,436.00 2668.37,462.86 2567.73,527.64 2536.48,548.06 2507.82,565.74 2476.56,585.83 2465.64,592.36 2444.59,602.72 2419.01,611.12 2399.55,611.58 2392.21,611.74 2350.44,608.86 2315.01,606.06 2291.76,604.23 2271.84,602.65 2213.01,599.08 2202.55,598.53 2166.41,596.65 2122.83,595.09 2008.92,591.01 1969.83,589.07 1954.41,588.78 1851.42,586.83 1807.31,586.06 1780.82,585.59 1774.11,585.48 1754.72,584.81 1735.96,584.18 1699.23,584.18 1516.45,583.50 1196.96,583.37 1182.19,583.40"/>
    </edge>
    <edge id="lane13" from="exit10" to="intersection1" priority="6" type="highway.tertiary" shape="2632.84,65.52 2598.25,64.34 2594.08,64.20 2572.09,64.58 2550.08,67.41 2522.12,75.29 2450.76,103.84 2367.72,137.13 2332.16,149.65 2288.38,155.82 2239.34,156.27 2201.91,152.07 2176.41,145.84 2158.46,141.45 2069.94,113.69 2034.64,107.26 1977.40,101.35 1773.10,88.63 1764.27,88.08 1754.43,89.47 1737.79,91.84 1702.88,101.44 1681.89,111.42 1653.18,134.72 1630.27,156.42 1612.61,183.09 1598.59,208.24 1591.16,233.93 1581.55,260.42 1569.09,289.89 1550.10,321.70 1526.42,341.96 1503.46,360.74 1475.22,373.82 1446.89,382.54 1415.53,387.67 1384.02,386.24 1359.07,383.94 1347.35,383.49 1288.27,380.72 1252.77,379.07 1234.49,378.21 1202.19,374.62 1157.14,371.52">
        <lane id="lane13_0" index="0" disallow="tram rail_urban rail rail_electric ship" speed="13.89" length="1643.89" shape="2632.79,67.12 2598.20,65.94 2594.07,65.80 2572.21,66.18 2550.40,68.98 2522.64,76.81 2451.35,105.33 2368.28,138.63 2332.54,151.21 2288.50,157.42 2239.26,157.87 2201.63,153.65 2176.03,147.39 2158.03,142.99 2069.56,115.25 2034.41,108.85 1977.27,102.94 1773.00,90.23 1764.33,89.69 1754.65,91.05 1738.12,93.41 1703.44,102.95 1682.75,112.78 1654.24,135.92 1631.50,157.46 1613.98,183.92 1600.08,208.86 1592.68,234.43 1583.04,261.00 1570.52,290.62 1551.34,322.75 1527.45,343.19 1504.32,362.11 1475.79,375.32 1447.26,384.10 1415.62,389.28 1383.91,387.84 1358.97,385.54 1347.28,385.09 1288.20,382.32 1252.70,380.67 1234.36,379.81 1202.05,376.21 1156.42,373.07"/>
    </edge>