<?xml version="1.0" encoding="UTF-8"?>
<routes>
  <vTypeDistribution id="typeVehicleDistribution">
        <!--http://www.toyota.com.au/prius-v/specifications/prius-v-->
        <vType id="Car" departSpeed="max" accel="3" decel="4.5" length="4.645" width="1.775" height="1.59" maxSpeed="17.88" speedDev="0.1" sigma="0.2" minGap="0.3" probability="0.2"/>
        <!--http://www.rms.nsw.gov.au/business-industry/heavy-vehicles/road-access/general-access-vehicles.html-->
        <vType id="Truck" accel="2.0" decel="4" length="12.5" width="2.5" height="4.3" maxSpeed="17.88" speedDev="0.1" sigma="0.2" minGap="0.3" probability="0.3"/>
        <!--http://www.modenabus.com/286/119/products/school_bus_school_bus_iveco_9_metres.html-->
        <vType id="Bus" accel="2.0" decel="4" length="9" width="2.4" height="3.2" maxSpeed="17.88" speedDev="0.1" sigma="0.2" minGap="0.3" probability="0.5"/>
  </vTypeDistribution>
      <flow id="flow1" color="0,0,1" begin="0" end= "50000" probability="0.2"  type="typeVehicleDistribution">
          <route edges="lane17 lane16 lane8  lane27 lane9 lane11 "/>
      </flow>    
      <flow id="flow2" color="0,1,0"  begin="0" end= "50000" probability="0.5"  type="typeVehicleDistribution">
          <route edges="lane5 lane6 lane7 lane18"/>
      </flow>    
      <flow id="flow3" color="0,1,1"  begin="0" end= "50000" probability="0.6"  type="typeVehicleDistribution">
          <route edges="lane5 lane6 lane7 lane24 lane23 lane22"/>
      </flow>    
      <flow id="flow4" color="1,0,0"  begin="0" end= "50000" probability="0.5"  type="typeVehicleDistribution">
          <route edges="lane17 lane16 lane8  lane27 r2 lane26 lane1 "/>
      </flow>     
      <flow id="flow5" color="1,0,1" begin="0" end= "50000" probability="0.20"  type="typeVehicleDistribution">
          <route edges="lane21 lane20 lane19 lane15 lane14"/>
      </flow>    
      <flow id="flow6" color="1,1,0"  begin="0" end= "50000" probability="0.20"  type="typeVehicleDistribution">
          <route edges="lane21 lane20 lane19 lane8 lane27 lane9 lane11"/>
      </flow>    
      <flow id="flow7" color="1,1,1"  begin="0" end= "50000" probability="0.5"  type="typeVehicleDistribution">
          <route edges="lane13 lane25 lane8  lane27 r2 lane26 lane1"/>
      </flow>    
      <flow id="flow8" color="1,0.5,0"  begin="0" end= "50000" probability="0.15"  type="typeVehicleDistribution">
          <route edges="lane13 lane25 lane24 lane23 lane22"/>
      </flow> 
      <flow id="flow9" color="0.5,0,1" begin="0" end= "50000" probability="0.5"  type="typeVehicleDistribution">
          <route edges="lane2 r4 lane7 lane24 lane23 lane22"/>
      </flow>    
      <flow id="flow10" color="0,1,0.5"  begin="0" end= "50000" probability="0.6" type="typeVehicleDistribution">
          <route edges="lane2 r4 lane7 lane18"/>
      </flow>    
      <flow id="flow11" color="1,0.5,0.1"  begin="0" end= "50000" probability="0.25"  type="typeVehicleDistribution">
          <route edges="lane17 connection1 lane14"/>
      </flow>    
      <flow id="flow12" color="1,0.5,1"  begin="0" end= "50000" probability="0.01"  type="typeVehicleDistribution">
          <route edges="lane12 lane10 lane26 lane1"/>
      </flow>
  	
</routes>
